
---------- Begin Simulation Statistics ----------
final_tick                                 8243878000                       # Number of ticks from beginning of simulation (restored from checkpoints and never reset)
host_inst_rate                                  94602                       # Simulator instruction rate (inst/s)
host_mem_usage                                 667332                       # Number of bytes of host memory used
host_op_rate                                   179949                       # Simulator op (including micro ops) rate (op/s)
host_seconds                                     1.00                       # Real time elapsed on the host
host_tick_rate                             8258726364                       # Simulator tick rate (ticks/s)
sim_freq                                 1000000000000                       # Frequency of simulated ticks
sim_insts                                       94389                       # Number of instructions simulated
sim_ops                                        179612                       # Number of ops (including micro ops) simulated
sim_seconds                                  0.008244                       # Number of seconds simulated
sim_ticks                                  8243878000                       # Number of ticks simulated
system.cpu.Branches                             18947                       # Number of branches fetched
system.cpu.committedInsts                       94389                       # Number of instructions committed
system.cpu.committedOps                        179612                       # Number of ops (including micro ops) committed
system.cpu.dtb.rdAccesses                       23846                       # TLB accesses on read requests
system.cpu.dtb.rdMisses                            23                       # TLB misses on read requests
system.cpu.dtb.wrAccesses                       15138                       # TLB accesses on write requests
system.cpu.dtb.wrMisses                            15                       # TLB misses on write requests
system.cpu.idle_fraction                     0.000000                       # Percentage of idle cycles
system.cpu.itb.rdAccesses                           0                       # TLB accesses on read requests
system.cpu.itb.rdMisses                             0                       # TLB misses on read requests
system.cpu.itb.wrAccesses                      126974                       # TLB accesses on write requests
system.cpu.itb.wrMisses                           105                       # TLB misses on write requests
system.cpu.not_idle_fraction                 1.000000                       # Percentage of non-idle cycles
system.cpu.numCycles                          8243878                       # number of cpu cycles simulated
system.cpu.numWorkItemsCompleted                    0                       # number of work items this cpu completed
system.cpu.numWorkItemsStarted                      0                       # number of work items this cpu started
system.cpu.num_busy_cycles               8243877.999000                       # Number of busy cycles
system.cpu.num_cc_register_reads                93850                       # number of times the CC registers were read
system.cpu.num_cc_register_writes               54531                       # number of times the CC registers were written
system.cpu.num_conditional_control_insts        13819                       # number of instructions that are conditional controls
system.cpu.num_fp_alu_accesses                   5444                       # Number of float alu accesses
system.cpu.num_fp_insts                          5444                       # number of float instructions
system.cpu.num_fp_register_reads                 7340                       # number of times the floating registers were read
system.cpu.num_fp_register_writes                3766                       # number of times the floating registers were written
system.cpu.num_func_calls                        3798                       # number of times a function call or return occured
system.cpu.num_idle_cycles                   0.001000                       # Number of idle cycles
system.cpu.num_int_alu_accesses                174016                       # Number of integer alu accesses
system.cpu.num_int_insts                       174016                       # number of integer instructions
system.cpu.num_int_register_reads              338328                       # number of times the integer registers were read
system.cpu.num_int_register_writes             139301                       # number of times the integer registers were written
system.cpu.num_load_insts                       23830                       # Number of load instructions
system.cpu.num_mem_refs                         38960                       # number of memory refs
system.cpu.num_store_insts                      15130                       # Number of store instructions
system.cpu.num_vec_alu_accesses                     0                       # Number of vector alu accesses
system.cpu.num_vec_insts                            0                       # number of vector instructions
system.cpu.num_vec_register_reads                   0                       # number of times the vector registers were read
system.cpu.num_vec_register_writes                  0                       # number of times the vector registers were written
system.cpu.op_class::No_OpClass                  2819      1.57%      1.57% # Class of executed instruction
system.cpu.op_class::IntAlu                    134765     75.03%     76.60% # Class of executed instruction
system.cpu.op_class::IntMult                        6      0.00%     76.60% # Class of executed instruction
system.cpu.op_class::IntDiv                        28      0.02%     76.62% # Class of executed instruction
system.cpu.op_class::FloatAdd                     341      0.19%     76.81% # Class of executed instruction
system.cpu.op_class::FloatCmp                       0      0.00%     76.81% # Class of executed instruction
system.cpu.op_class::FloatCvt                       0      0.00%     76.81% # Class of executed instruction
system.cpu.op_class::FloatMult                      0      0.00%     76.81% # Class of executed instruction
system.cpu.op_class::FloatMultAcc                   0      0.00%     76.81% # Class of executed instruction
system.cpu.op_class::FloatDiv                       0      0.00%     76.81% # Class of executed instruction
system.cpu.op_class::FloatMisc                      0      0.00%     76.81% # Class of executed instruction
system.cpu.op_class::FloatSqrt                      0      0.00%     76.81% # Class of executed instruction
system.cpu.op_class::SimdAdd                       16      0.01%     76.82% # Class of executed instruction
system.cpu.op_class::SimdAddAcc                     0      0.00%     76.82% # Class of executed instruction
system.cpu.op_class::SimdAlu                      996      0.55%     77.37% # Class of executed instruction
system.cpu.op_class::SimdCmp                        6      0.00%     77.37% # Class of executed instruction
system.cpu.op_class::SimdCvt                      546      0.30%     77.68% # Class of executed instruction
system.cpu.op_class::SimdMisc                    1134      0.63%     78.31% # Class of executed instruction
system.cpu.op_class::SimdMult                       0      0.00%     78.31% # Class of executed instruction
system.cpu.op_class::SimdMultAcc                    0      0.00%     78.31% # Class of executed instruction
system.cpu.op_class::SimdShift                      0      0.00%     78.31% # Class of executed instruction
system.cpu.op_class::SimdShiftAcc                   0      0.00%     78.31% # Class of executed instruction
system.cpu.op_class::SimdDiv                        0      0.00%     78.31% # Class of executed instruction
system.cpu.op_class::SimdSqrt                       0      0.00%     78.31% # Class of executed instruction
system.cpu.op_class::SimdFloatAdd                   0      0.00%     78.31% # Class of executed instruction
system.cpu.op_class::SimdFloatAlu                   0      0.00%     78.31% # Class of executed instruction
system.cpu.op_class::SimdFloatCmp                   0      0.00%     78.31% # Class of executed instruction
system.cpu.op_class::SimdFloatCvt                   0      0.00%     78.31% # Class of executed instruction
system.cpu.op_class::SimdFloatDiv                   0      0.00%     78.31% # Class of executed instruction
system.cpu.op_class::SimdFloatMisc                  0      0.00%     78.31% # Class of executed instruction
system.cpu.op_class::SimdFloatMult                  0      0.00%     78.31% # Class of executed instruction
system.cpu.op_class::SimdFloatMultAcc               0      0.00%     78.31% # Class of executed instruction
system.cpu.op_class::SimdFloatSqrt                  0      0.00%     78.31% # Class of executed instruction
system.cpu.op_class::SimdReduceAdd                  0      0.00%     78.31% # Class of executed instruction
system.cpu.op_class::SimdReduceAlu                  0      0.00%     78.31% # Class of executed instruction
system.cpu.op_class::SimdReduceCmp                  0      0.00%     78.31% # Class of executed instruction
system.cpu.op_class::SimdFloatReduceAdd             0      0.00%     78.31% # Class of executed instruction
system.cpu.op_class::SimdFloatReduceCmp             0      0.00%     78.31% # Class of executed instruction
system.cpu.op_class::SimdAes                        0      0.00%     78.31% # Class of executed instruction
system.cpu.op_class::SimdAesMix                     0      0.00%     78.31% # Class of executed instruction
system.cpu.op_class::SimdSha1Hash                   0      0.00%     78.31% # Class of executed instruction
system.cpu.op_class::SimdSha1Hash2                  0      0.00%     78.31% # Class of executed instruction
system.cpu.op_class::SimdSha256Hash                 0      0.00%     78.31% # Class of executed instruction
system.cpu.op_class::SimdSha256Hash2                0      0.00%     78.31% # Class of executed instruction
system.cpu.op_class::SimdShaSigma2                  0      0.00%     78.31% # Class of executed instruction
system.cpu.op_class::SimdShaSigma3                  0      0.00%     78.31% # Class of executed instruction
system.cpu.op_class::SimdPredAlu                    0      0.00%     78.31% # Class of executed instruction
system.cpu.op_class::MemRead                    23102     12.86%     91.17% # Class of executed instruction
system.cpu.op_class::MemWrite                   13854      7.71%     98.88% # Class of executed instruction
system.cpu.op_class::FloatMemRead                 728      0.41%     99.29% # Class of executed instruction
system.cpu.op_class::FloatMemWrite               1276      0.71%    100.00% # Class of executed instruction
system.cpu.op_class::IprAccess                      0      0.00%    100.00% # Class of executed instruction
system.cpu.op_class::InstPrefetch                   0      0.00%    100.00% # Class of executed instruction
system.cpu.op_class::total                     179617                       # Class of executed instruction
system.cpu.workload.numSyscalls                    12                       # Number of system calls
system.membus.snoop_filter.hit_multi_requests            0                       # Number of requests hitting in the snoop filter with multiple (>1) holders of the requested data.
system.membus.snoop_filter.hit_multi_snoops            0                       # Number of snoops hitting in the snoop filter with multiple (>1) holders of the requested data.
system.membus.snoop_filter.hit_single_requests            0                       # Number of requests hitting in the snoop filter with a single holder of the requested data.
system.membus.snoop_filter.hit_single_snoops            0                       # Number of snoops hitting in the snoop filter with a single holder of the requested data.
system.membus.snoop_filter.tot_requests             0                       # Total number of requests made to the snoop filter.
system.membus.snoop_filter.tot_snoops               0                       # Total number of snoops made to the snoop filter.
system.membus.trans_dist::ReadReq              150819                       # Transaction distribution
system.membus.trans_dist::ReadResp             150819                       # Transaction distribution
system.membus.trans_dist::WriteReq              15134                       # Transaction distribution
system.membus.trans_dist::WriteResp             15134                       # Transaction distribution
system.membus.pkt_count_system.cpu.icache_port::system.mem_ctrl.port       253948                       # Packet count per connected master and slave (bytes)
system.membus.pkt_count_system.cpu.icache_port::total       253948                       # Packet count per connected master and slave (bytes)
system.membus.pkt_count_system.cpu.dcache_port::system.mem_ctrl.port        77958                       # Packet count per connected master and slave (bytes)
system.membus.pkt_count_system.cpu.dcache_port::total        77958                       # Packet count per connected master and slave (bytes)
system.membus.pkt_count::total                 331906                       # Packet count per connected master and slave (bytes)
system.membus.pkt_size_system.cpu.icache_port::system.mem_ctrl.port      1015792                       # Cumulative packet size per connected master and slave (bytes)
system.membus.pkt_size_system.cpu.icache_port::total      1015792                       # Cumulative packet size per connected master and slave (bytes)
system.membus.pkt_size_system.cpu.dcache_port::system.mem_ctrl.port       260782                       # Cumulative packet size per connected master and slave (bytes)
system.membus.pkt_size_system.cpu.dcache_port::total       260782                       # Cumulative packet size per connected master and slave (bytes)
system.membus.pkt_size::total                 1276574                       # Cumulative packet size per connected master and slave (bytes)
system.membus.snoops                                0                       # Total snoops (count)
system.membus.snoopTraffic                          0                       # Total snoop traffic (bytes)
system.membus.snoop_fanout::samples            165953                       # Request fanout histogram
system.membus.snoop_fanout::mean                    0                       # Request fanout histogram
system.membus.snoop_fanout::stdev                   0                       # Request fanout histogram
system.membus.snoop_fanout::underflows              0      0.00%      0.00% # Request fanout histogram
system.membus.snoop_fanout::0                  165953    100.00%    100.00% # Request fanout histogram
system.membus.snoop_fanout::1                       0      0.00%    100.00% # Request fanout histogram
system.membus.snoop_fanout::overflows               0      0.00%    100.00% # Request fanout histogram
system.membus.snoop_fanout::min_value               0                       # Request fanout histogram
system.membus.snoop_fanout::max_value               0                       # Request fanout histogram
system.membus.snoop_fanout::total              165953                       # Request fanout histogram
system.membus.reqLayer2.occupancy           181087000                       # Layer occupancy (ticks)
system.membus.reqLayer2.utilization               2.2                       # Layer utilization (%)
system.membus.respLayer1.occupancy           70575500                       # Layer occupancy (ticks)
system.membus.respLayer1.utilization              0.9                       # Layer utilization (%)
system.membus.respLayer0.occupancy          289384250                       # Layer occupancy (ticks)
system.membus.respLayer0.utilization              3.5                       # Layer utilization (%)
system.membus.power_state.pwrStateResidencyTicks::UNDEFINED   8243878000                       # Cumulative time (in ticks) in various power states
system.mem_ctrl.bytes_read::.cpu.inst         1015792                       # Number of bytes read from this memory
system.mem_ctrl.bytes_read::.cpu.data          159647                       # Number of bytes read from this memory
system.mem_ctrl.bytes_read::total             1175439                       # Number of bytes read from this memory
system.mem_ctrl.bytes_inst_read::.cpu.inst      1015792                       # Number of instructions bytes read from this memory
system.mem_ctrl.bytes_inst_read::total        1015792                       # Number of instructions bytes read from this memory
system.mem_ctrl.bytes_written::.cpu.data       101135                       # Number of bytes written to this memory
system.mem_ctrl.bytes_written::total           101135                       # Number of bytes written to this memory
system.mem_ctrl.num_reads::.cpu.inst           126974                       # Number of read requests responded to by this memory
system.mem_ctrl.num_reads::.cpu.data            23845                       # Number of read requests responded to by this memory
system.mem_ctrl.num_reads::total               150819                       # Number of read requests responded to by this memory
system.mem_ctrl.num_writes::.cpu.data           15134                       # Number of write requests responded to by this memory
system.mem_ctrl.num_writes::total               15134                       # Number of write requests responded to by this memory
system.mem_ctrl.bw_read::.cpu.inst          123217738                       # Total read bandwidth from this memory (bytes/s)
system.mem_ctrl.bw_read::.cpu.data           19365522                       # Total read bandwidth from this memory (bytes/s)
system.mem_ctrl.bw_read::total              142583260                       # Total read bandwidth from this memory (bytes/s)
system.mem_ctrl.bw_inst_read::.cpu.inst     123217738                       # Instruction read bandwidth from this memory (bytes/s)
system.mem_ctrl.bw_inst_read::total         123217738                       # Instruction read bandwidth from this memory (bytes/s)
system.mem_ctrl.bw_write::.cpu.data          12267891                       # Write bandwidth from this memory (bytes/s)
system.mem_ctrl.bw_write::total              12267891                       # Write bandwidth from this memory (bytes/s)
system.mem_ctrl.bw_total::.cpu.inst         123217738                       # Total bandwidth to/from this memory (bytes/s)
system.mem_ctrl.bw_total::.cpu.data          31633413                       # Total bandwidth to/from this memory (bytes/s)
system.mem_ctrl.bw_total::total             154851151                       # Total bandwidth to/from this memory (bytes/s)
system.mem_ctrl.avgPriority_.cpu.inst::samples    126974.00                       # Average QoS priority value for accepted requests
system.mem_ctrl.avgPriority_.cpu.data::samples     21580.00                       # Average QoS priority value for accepted requests
system.mem_ctrl.priorityMinLatency       0.000000018750                       # per QoS priority minimum request to response latency (s)
system.mem_ctrl.priorityMaxLatency       0.006472954750                       # per QoS priority maximum request to response latency (s)
system.mem_ctrl.numReadWriteTurnArounds            33                       # Number of turnarounds from READ to WRITE
system.mem_ctrl.numWriteReadTurnArounds            33                       # Number of turnarounds from WRITE to READ
system.mem_ctrl.numStayReadState               313220                       # Number of times bus staying in READ state
system.mem_ctrl.numStayWriteState                 496                       # Number of times bus staying in WRITE state
system.mem_ctrl.readReqs                       150819                       # Number of read requests accepted
system.mem_ctrl.writeReqs                       15134                       # Number of write requests accepted
system.mem_ctrl.readBursts                     150819                       # Number of DRAM read bursts, including those serviced by the write queue
system.mem_ctrl.writeBursts                     15134                       # Number of DRAM write bursts, including those merged in the write queue
system.mem_ctrl.servicedByWrQ                    2815                       # Number of DRAM read bursts serviced by the write queue
system.mem_ctrl.mergedWrBursts                  14584                       # Number of DRAM write bursts merged with an existing one
system.mem_ctrl.neitherReadNorWriteReqs             0                       # Number of requests that are neither read nor write
system.mem_ctrl.perBankRdBursts::0               2828                       # Per bank write bursts
system.mem_ctrl.perBankRdBursts::1               2223                       # Per bank write bursts
system.mem_ctrl.perBankRdBursts::2              15127                       # Per bank write bursts
system.mem_ctrl.perBankRdBursts::3               4893                       # Per bank write bursts
system.mem_ctrl.perBankRdBursts::4              19100                       # Per bank write bursts
system.mem_ctrl.perBankRdBursts::5               1816                       # Per bank write bursts
system.mem_ctrl.perBankRdBursts::6               3946                       # Per bank write bursts
system.mem_ctrl.perBankRdBursts::7               4793                       # Per bank write bursts
system.mem_ctrl.perBankRdBursts::8               2879                       # Per bank write bursts
system.mem_ctrl.perBankRdBursts::9               8341                       # Per bank write bursts
system.mem_ctrl.perBankRdBursts::10              5627                       # Per bank write bursts
system.mem_ctrl.perBankRdBursts::11             17752                       # Per bank write bursts
system.mem_ctrl.perBankRdBursts::12              3662                       # Per bank write bursts
system.mem_ctrl.perBankRdBursts::13             37349                       # Per bank write bursts
system.mem_ctrl.perBankRdBursts::14             15422                       # Per bank write bursts
system.mem_ctrl.perBankRdBursts::15              2246                       # Per bank write bursts
system.mem_ctrl.perBankWrBursts::0                  1                       # Per bank write bursts
system.mem_ctrl.perBankWrBursts::1                  0                       # Per bank write bursts
system.mem_ctrl.perBankWrBursts::2                  0                       # Per bank write bursts
system.mem_ctrl.perBankWrBursts::3                  0                       # Per bank write bursts
system.mem_ctrl.perBankWrBursts::4                  0                       # Per bank write bursts
system.mem_ctrl.perBankWrBursts::5                  0                       # Per bank write bursts
system.mem_ctrl.perBankWrBursts::6                  0                       # Per bank write bursts
system.mem_ctrl.perBankWrBursts::7                  0                       # Per bank write bursts
system.mem_ctrl.perBankWrBursts::8                  0                       # Per bank write bursts
system.mem_ctrl.perBankWrBursts::9                 42                       # Per bank write bursts
system.mem_ctrl.perBankWrBursts::10                59                       # Per bank write bursts
system.mem_ctrl.perBankWrBursts::11               176                       # Per bank write bursts
system.mem_ctrl.perBankWrBursts::12                72                       # Per bank write bursts
system.mem_ctrl.perBankWrBursts::13               108                       # Per bank write bursts
system.mem_ctrl.perBankWrBursts::14                20                       # Per bank write bursts
system.mem_ctrl.perBankWrBursts::15                50                       # Per bank write bursts
system.mem_ctrl.avgRdQLen                        1.00                       # Average read queue length when enqueuing
system.mem_ctrl.avgWrQLen                       27.04                       # Average write queue length when enqueuing
system.mem_ctrl.totQLat                     612273250                       # Total ticks spent queuing
system.mem_ctrl.totBusLat                   740020000                       # Total ticks spent in databus transfers
system.mem_ctrl.totMemAccLat               3387348250                       # Total ticks spent from burst creation until serviced by the DRAM
system.mem_ctrl.avgQLat                       4136.87                       # Average queueing delay per DRAM burst
system.mem_ctrl.avgBusLat                     5000.00                       # Average bus latency per DRAM burst
system.mem_ctrl.avgMemAccLat                 22886.87                       # Average memory access latency per DRAM burst
system.mem_ctrl.numRdRetry                          0                       # Number of times read queue was full causing retry
system.mem_ctrl.numWrRetry                          0                       # Number of times write queue was full causing retry
system.mem_ctrl.readRowHits                    129727                       # Number of row buffer hits during reads
system.mem_ctrl.writeRowHits                      480                       # Number of row buffer hits during writes
system.mem_ctrl.readRowHitRate                  87.65                       # Row buffer hit rate for reads
system.mem_ctrl.writeRowHitRate                 87.27                       # Row buffer hit rate for writes
system.mem_ctrl.readPktSize::0                   1445                       # Read request sizes (log2)
system.mem_ctrl.readPktSize::1                     30                       # Read request sizes (log2)
system.mem_ctrl.readPktSize::2                   5199                       # Read request sizes (log2)
system.mem_ctrl.readPktSize::3                 144145                       # Read request sizes (log2)
system.mem_ctrl.readPktSize::4                      0                       # Read request sizes (log2)
system.mem_ctrl.readPktSize::5                      0                       # Read request sizes (log2)
system.mem_ctrl.readPktSize::6                      0                       # Read request sizes (log2)
system.mem_ctrl.writePktSize::0                  1049                       # Write request sizes (log2)
system.mem_ctrl.writePktSize::1                    65                       # Write request sizes (log2)
system.mem_ctrl.writePktSize::2                  3048                       # Write request sizes (log2)
system.mem_ctrl.writePktSize::3                 10972                       # Write request sizes (log2)
system.mem_ctrl.writePktSize::4                     0                       # Write request sizes (log2)
system.mem_ctrl.writePktSize::5                     0                       # Write request sizes (log2)
system.mem_ctrl.writePktSize::6                     0                       # Write request sizes (log2)
system.mem_ctrl.rdQLenPdf::0                   147991                       # What read queue length does an incoming req see
system.mem_ctrl.rdQLenPdf::1                       13                       # What read queue length does an incoming req see
system.mem_ctrl.rdQLenPdf::2                        0                       # What read queue length does an incoming req see
system.mem_ctrl.rdQLenPdf::3                        0                       # What read queue length does an incoming req see
system.mem_ctrl.rdQLenPdf::4                        0                       # What read queue length does an incoming req see
system.mem_ctrl.rdQLenPdf::5                        0                       # What read queue length does an incoming req see
system.mem_ctrl.rdQLenPdf::6                        0                       # What read queue length does an incoming req see
system.mem_ctrl.rdQLenPdf::7                        0                       # What read queue length does an incoming req see
system.mem_ctrl.rdQLenPdf::8                        0                       # What read queue length does an incoming req see
system.mem_ctrl.rdQLenPdf::9                        0                       # What read queue length does an incoming req see
system.mem_ctrl.rdQLenPdf::10                       0                       # What read queue length does an incoming req see
system.mem_ctrl.rdQLenPdf::11                       0                       # What read queue length does an incoming req see
system.mem_ctrl.rdQLenPdf::12                       0                       # What read queue length does an incoming req see
system.mem_ctrl.rdQLenPdf::13                       0                       # What read queue length does an incoming req see
system.mem_ctrl.rdQLenPdf::14                       0                       # What read queue length does an incoming req see
system.mem_ctrl.rdQLenPdf::15                       0                       # What read queue length does an incoming req see
system.mem_ctrl.rdQLenPdf::16                       0                       # What read queue length does an incoming req see
system.mem_ctrl.rdQLenPdf::17                       0                       # What read queue length does an incoming req see
system.mem_ctrl.rdQLenPdf::18                       0                       # What read queue length does an incoming req see
system.mem_ctrl.rdQLenPdf::19                       0                       # What read queue length does an incoming req see
system.mem_ctrl.rdQLenPdf::20                       0                       # What read queue length does an incoming req see
system.mem_ctrl.rdQLenPdf::21                       0                       # What read queue length does an incoming req see
system.mem_ctrl.rdQLenPdf::22                       0                       # What read queue length does an incoming req see
system.mem_ctrl.rdQLenPdf::23                       0                       # What read queue length does an incoming req see
system.mem_ctrl.rdQLenPdf::24                       0                       # What read queue length does an incoming req see
system.mem_ctrl.rdQLenPdf::25                       0                       # What read queue length does an incoming req see
system.mem_ctrl.rdQLenPdf::26                       0                       # What read queue length does an incoming req see
system.mem_ctrl.rdQLenPdf::27                       0                       # What read queue length does an incoming req see
system.mem_ctrl.rdQLenPdf::28                       0                       # What read queue length does an incoming req see
system.mem_ctrl.rdQLenPdf::29                       0                       # What read queue length does an incoming req see
system.mem_ctrl.rdQLenPdf::30                       0                       # What read queue length does an incoming req see
system.mem_ctrl.rdQLenPdf::31                       0                       # What read queue length does an incoming req see
system.mem_ctrl.wrQLenPdf::0                        1                       # What write queue length does an incoming req see
system.mem_ctrl.wrQLenPdf::1                        1                       # What write queue length does an incoming req see
system.mem_ctrl.wrQLenPdf::2                        1                       # What write queue length does an incoming req see
system.mem_ctrl.wrQLenPdf::3                        1                       # What write queue length does an incoming req see
system.mem_ctrl.wrQLenPdf::4                        1                       # What write queue length does an incoming req see
system.mem_ctrl.wrQLenPdf::5                        1                       # What write queue length does an incoming req see
system.mem_ctrl.wrQLenPdf::6                        1                       # What write queue length does an incoming req see
system.mem_ctrl.wrQLenPdf::7                        1                       # What write queue length does an incoming req see
system.mem_ctrl.wrQLenPdf::8                        1                       # What write queue length does an incoming req see
system.mem_ctrl.wrQLenPdf::9                        1                       # What write queue length does an incoming req see
system.mem_ctrl.wrQLenPdf::10                       1                       # What write queue length does an incoming req see
system.mem_ctrl.wrQLenPdf::11                       1                       # What write queue length does an incoming req see
system.mem_ctrl.wrQLenPdf::12                       1                       # What write queue length does an incoming req see
system.mem_ctrl.wrQLenPdf::13                       1                       # What write queue length does an incoming req see
system.mem_ctrl.wrQLenPdf::14                       1                       # What write queue length does an incoming req see
system.mem_ctrl.wrQLenPdf::15                       1                       # What write queue length does an incoming req see
system.mem_ctrl.wrQLenPdf::16                       1                       # What write queue length does an incoming req see
system.mem_ctrl.wrQLenPdf::17                      33                       # What write queue length does an incoming req see
system.mem_ctrl.wrQLenPdf::18                      34                       # What write queue length does an incoming req see
system.mem_ctrl.wrQLenPdf::19                      34                       # What write queue length does an incoming req see
system.mem_ctrl.wrQLenPdf::20                      34                       # What write queue length does an incoming req see
system.mem_ctrl.wrQLenPdf::21                      34                       # What write queue length does an incoming req see
system.mem_ctrl.wrQLenPdf::22                      33                       # What write queue length does an incoming req see
system.mem_ctrl.wrQLenPdf::23                      34                       # What write queue length does an incoming req see
system.mem_ctrl.wrQLenPdf::24                      33                       # What write queue length does an incoming req see
system.mem_ctrl.wrQLenPdf::25                      33                       # What write queue length does an incoming req see
system.mem_ctrl.wrQLenPdf::26                      33                       # What write queue length does an incoming req see
system.mem_ctrl.wrQLenPdf::27                      33                       # What write queue length does an incoming req see
system.mem_ctrl.wrQLenPdf::28                      33                       # What write queue length does an incoming req see
system.mem_ctrl.wrQLenPdf::29                      33                       # What write queue length does an incoming req see
system.mem_ctrl.wrQLenPdf::30                      33                       # What write queue length does an incoming req see
system.mem_ctrl.wrQLenPdf::31                      33                       # What write queue length does an incoming req see
system.mem_ctrl.wrQLenPdf::32                      33                       # What write queue length does an incoming req see
system.mem_ctrl.wrQLenPdf::33                       0                       # What write queue length does an incoming req see
system.mem_ctrl.wrQLenPdf::34                       0                       # What write queue length does an incoming req see
system.mem_ctrl.wrQLenPdf::35                       0                       # What write queue length does an incoming req see
system.mem_ctrl.wrQLenPdf::36                       0                       # What write queue length does an incoming req see
system.mem_ctrl.wrQLenPdf::37                       0                       # What write queue length does an incoming req see
system.mem_ctrl.wrQLenPdf::38                       0                       # What write queue length does an incoming req see
system.mem_ctrl.wrQLenPdf::39                       0                       # What write queue length does an incoming req see
system.mem_ctrl.wrQLenPdf::40                       0                       # What write queue length does an incoming req see
system.mem_ctrl.wrQLenPdf::41                       0                       # What write queue length does an incoming req see
system.mem_ctrl.wrQLenPdf::42                       0                       # What write queue length does an incoming req see
system.mem_ctrl.wrQLenPdf::43                       0                       # What write queue length does an incoming req see
system.mem_ctrl.wrQLenPdf::44                       0                       # What write queue length does an incoming req see
system.mem_ctrl.wrQLenPdf::45                       0                       # What write queue length does an incoming req see
system.mem_ctrl.wrQLenPdf::46                       0                       # What write queue length does an incoming req see
system.mem_ctrl.wrQLenPdf::47                       0                       # What write queue length does an incoming req see
system.mem_ctrl.wrQLenPdf::48                       0                       # What write queue length does an incoming req see
system.mem_ctrl.wrQLenPdf::49                       0                       # What write queue length does an incoming req see
system.mem_ctrl.wrQLenPdf::50                       0                       # What write queue length does an incoming req see
system.mem_ctrl.wrQLenPdf::51                       0                       # What write queue length does an incoming req see
system.mem_ctrl.wrQLenPdf::52                       0                       # What write queue length does an incoming req see
system.mem_ctrl.wrQLenPdf::53                       0                       # What write queue length does an incoming req see
system.mem_ctrl.wrQLenPdf::54                       0                       # What write queue length does an incoming req see
system.mem_ctrl.wrQLenPdf::55                       0                       # What write queue length does an incoming req see
system.mem_ctrl.wrQLenPdf::56                       0                       # What write queue length does an incoming req see
system.mem_ctrl.wrQLenPdf::57                       0                       # What write queue length does an incoming req see
system.mem_ctrl.wrQLenPdf::58                       0                       # What write queue length does an incoming req see
system.mem_ctrl.wrQLenPdf::59                       0                       # What write queue length does an incoming req see
system.mem_ctrl.wrQLenPdf::60                       0                       # What write queue length does an incoming req see
system.mem_ctrl.wrQLenPdf::61                       0                       # What write queue length does an incoming req see
system.mem_ctrl.wrQLenPdf::62                       0                       # What write queue length does an incoming req see
system.mem_ctrl.wrQLenPdf::63                       0                       # What write queue length does an incoming req see
system.mem_ctrl.bytesPerActivate::samples        18319                       # Bytes accessed per row activation
system.mem_ctrl.bytesPerActivate::mean     518.760194                       # Bytes accessed per row activation
system.mem_ctrl.bytesPerActivate::gmean    299.613314                       # Bytes accessed per row activation
system.mem_ctrl.bytesPerActivate::stdev    417.252430                       # Bytes accessed per row activation
system.mem_ctrl.bytesPerActivate::0-127          5708     31.16%     31.16% # Bytes accessed per row activation
system.mem_ctrl.bytesPerActivate::128-255         1750      9.55%     40.71% # Bytes accessed per row activation
system.mem_ctrl.bytesPerActivate::256-383          872      4.76%     45.47% # Bytes accessed per row activation
system.mem_ctrl.bytesPerActivate::384-511         1082      5.91%     51.38% # Bytes accessed per row activation
system.mem_ctrl.bytesPerActivate::512-639         1154      6.30%     57.68% # Bytes accessed per row activation
system.mem_ctrl.bytesPerActivate::640-767          702      3.83%     61.51% # Bytes accessed per row activation
system.mem_ctrl.bytesPerActivate::768-895          400      2.18%     63.69% # Bytes accessed per row activation
system.mem_ctrl.bytesPerActivate::896-1023          466      2.54%     66.24% # Bytes accessed per row activation
system.mem_ctrl.bytesPerActivate::1024-1151         6185     33.76%    100.00% # Bytes accessed per row activation
system.mem_ctrl.bytesPerActivate::total         18319                       # Bytes accessed per row activation
system.mem_ctrl.rdPerTurnAround::samples           33                       # Reads before turning the bus around for writes
system.mem_ctrl.rdPerTurnAround::mean     4477.030303                       # Reads before turning the bus around for writes
system.mem_ctrl.rdPerTurnAround::gmean    1917.325057                       # Reads before turning the bus around for writes
system.mem_ctrl.rdPerTurnAround::stdev    8756.387452                       # Reads before turning the bus around for writes
system.mem_ctrl.rdPerTurnAround::0-2047            17     51.52%     51.52% # Reads before turning the bus around for writes
system.mem_ctrl.rdPerTurnAround::2048-4095            7     21.21%     72.73% # Reads before turning the bus around for writes
system.mem_ctrl.rdPerTurnAround::4096-6143            4     12.12%     84.85% # Reads before turning the bus around for writes
system.mem_ctrl.rdPerTurnAround::6144-8191            2      6.06%     90.91% # Reads before turning the bus around for writes
system.mem_ctrl.rdPerTurnAround::8192-10239            1      3.03%     93.94% # Reads before turning the bus around for writes
system.mem_ctrl.rdPerTurnAround::16384-18431            1      3.03%     96.97% # Reads before turning the bus around for writes
system.mem_ctrl.rdPerTurnAround::47104-49151            1      3.03%    100.00% # Reads before turning the bus around for writes
system.mem_ctrl.rdPerTurnAround::total             33                       # Reads before turning the bus around for writes
system.mem_ctrl.wrPerTurnAround::samples           33                       # Writes before turning the bus around for reads
system.mem_ctrl.wrPerTurnAround::mean              16                       # Writes before turning the bus around for reads
system.mem_ctrl.wrPerTurnAround::gmean      16.000000                       # Writes before turning the bus around for reads
system.mem_ctrl.wrPerTurnAround::16                33    100.00%    100.00% # Writes before turning the bus around for reads
system.mem_ctrl.wrPerTurnAround::total             33                       # Writes before turning the bus around for reads
system.mem_ctrl.bytesReadDRAM                 9472256                       # Total number of bytes read from DRAM
system.mem_ctrl.bytesReadWrQ                   180160                       # Total number of bytes read from write queue
system.mem_ctrl.bytesWritten                    33792                       # Total number of bytes written to DRAM
system.mem_ctrl.bytesReadSys                  1175439                       # Total read bytes from the system interface side
system.mem_ctrl.bytesWrittenSys                101135                       # Total written bytes from the system interface side
system.mem_ctrl.avgRdBW                       1149.00                       # Average DRAM read bandwidth in MiByte/s
system.mem_ctrl.avgWrBW                          4.10                       # Average achieved write bandwidth in MiByte/s
system.mem_ctrl.avgRdBWSys                     142.58                       # Average system read bandwidth in MiByte/s
system.mem_ctrl.avgWrBWSys                      12.27                       # Average system write bandwidth in MiByte/s
system.mem_ctrl.peakBW                       12800.00                       # Theoretical peak bandwidth in MiByte/s
system.mem_ctrl.busUtil                          9.01                       # Data bus utilization in percentage
system.mem_ctrl.busUtilRead                      8.98                       # Data bus utilization in percentage for reads
system.mem_ctrl.busUtilWrite                     0.03                       # Data bus utilization in percentage for writes
system.mem_ctrl.totGap                     8243752000                       # Total gap between requests
system.mem_ctrl.avgGap                       49675.22                       # Average gap between requests
system.mem_ctrl.masterReadBytes::.cpu.inst      1015792                       # Per-master bytes read from memory
system.mem_ctrl.masterReadBytes::.cpu.data       138384                       # Per-master bytes read from memory
system.mem_ctrl.masterWriteBytes::.cpu.data         3598                       # Per-master bytes write to memory
system.mem_ctrl.masterReadRate::.cpu.inst 123217738.059685021639                       # Per-master bytes read from memory rate (Bytes/sec)
system.mem_ctrl.masterReadRate::.cpu.data 16786274.614932440221                       # Per-master bytes read from memory rate (Bytes/sec)
system.mem_ctrl.masterWriteRate::.cpu.data 436445.080822399410                       # Per-master bytes write to memory rate (Bytes/sec)
system.mem_ctrl.masterReadAccesses::.cpu.inst       126974                       # Per-master read serviced memory accesses
system.mem_ctrl.masterReadAccesses::.cpu.data        23845                       # Per-master read serviced memory accesses
system.mem_ctrl.masterWriteAccesses::.cpu.data        15134                       # Per-master write serviced memory accesses
system.mem_ctrl.masterReadTotalLat::.cpu.inst   2815686750                       # Per-master read total memory access latency
system.mem_ctrl.masterReadTotalLat::.cpu.data    571661500                       # Per-master read total memory access latency
system.mem_ctrl.masterWriteTotalLat::.cpu.data 208311591500                       # Per-master write total memory access latency
system.mem_ctrl.masterReadAvgLat::.cpu.inst     22175.30                       # Per-master read average memory access latency
system.mem_ctrl.masterReadAvgLat::.cpu.data     23974.06                       # Per-master read average memory access latency
system.mem_ctrl.masterWriteAvgLat::.cpu.data  13764476.77                       # Per-master write average memory access latency
system.mem_ctrl.pageHitRate                     87.65                       # Row buffer hit rate, read and write combined
system.mem_ctrl.rank1.actEnergy             100224180                       # Energy for activate commands per rank (pJ)
system.mem_ctrl.rank1.preEnergy              53255235                       # Energy for precharge commands per rank (pJ)
system.mem_ctrl.rank1.readEnergy            666004920                       # Energy for read commands per rank (pJ)
system.mem_ctrl.rank1.writeEnergy             2750940                       # Energy for write commands per rank (pJ)
system.mem_ctrl.rank1.refreshEnergy      650289120.000000                       # Energy for refresh commands per rank (pJ)
system.mem_ctrl.rank1.actBackEnergy        3633072840                       # Energy for active background per rank (pJ)
system.mem_ctrl.rank1.preBackEnergy         106219680                       # Energy for precharge background per rank (pJ)
system.mem_ctrl.rank1.actPowerDownEnergy            0                       # Energy for active power-down per rank (pJ)
system.mem_ctrl.rank1.prePowerDownEnergy            0                       # Energy for precharge power-down per rank (pJ)
system.mem_ctrl.rank1.selfRefreshEnergy             0                       # Energy for self refresh per rank (pJ)
system.mem_ctrl.rank1.totalEnergy          5211816915                       # Total energy per rank (pJ)
system.mem_ctrl.rank1.averagePower         632.204518                       # Core power per rank (mW)
system.mem_ctrl.rank1.totalIdleTime                 0                       # Total Idle time Per DRAM Rank
system.mem_ctrl.rank1.memoryStateTime::IDLE    234265000                       # Time in different power states
system.mem_ctrl.rank1.memoryStateTime::REF    275080000                       # Time in different power states
system.mem_ctrl.rank1.memoryStateTime::SREF            0                       # Time in different power states
system.mem_ctrl.rank1.memoryStateTime::PRE_PDN            0                       # Time in different power states
system.mem_ctrl.rank1.memoryStateTime::ACT   7734533000                       # Time in different power states
system.mem_ctrl.rank1.memoryStateTime::ACT_PDN            0                       # Time in different power states
system.mem_ctrl.rank0.actEnergy              30616320                       # Energy for activate commands per rank (pJ)
system.mem_ctrl.rank0.preEnergy              16265370                       # Energy for precharge commands per rank (pJ)
system.mem_ctrl.rank0.readEnergy            390743640                       # Energy for read commands per rank (pJ)
system.mem_ctrl.rank0.writeEnergy                5220                       # Energy for write commands per rank (pJ)
system.mem_ctrl.rank0.refreshEnergy      650289120.000000                       # Energy for refresh commands per rank (pJ)
system.mem_ctrl.rank0.actBackEnergy        2442058980                       # Energy for active background per rank (pJ)
system.mem_ctrl.rank0.preBackEnergy        1109178720                       # Energy for precharge background per rank (pJ)
system.mem_ctrl.rank0.actPowerDownEnergy            0                       # Energy for active power-down per rank (pJ)
system.mem_ctrl.rank0.prePowerDownEnergy            0                       # Energy for precharge power-down per rank (pJ)
system.mem_ctrl.rank0.selfRefreshEnergy             0                       # Energy for self refresh per rank (pJ)
system.mem_ctrl.rank0.totalEnergy          4639157370                       # Total energy per rank (pJ)
system.mem_ctrl.rank0.averagePower         562.739692                       # Core power per rank (mW)
system.mem_ctrl.rank0.totalIdleTime                 0                       # Total Idle time Per DRAM Rank
system.mem_ctrl.rank0.memoryStateTime::IDLE   2834529500                       # Time in different power states
system.mem_ctrl.rank0.memoryStateTime::REF    275080000                       # Time in different power states
system.mem_ctrl.rank0.memoryStateTime::SREF            0                       # Time in different power states
system.mem_ctrl.rank0.memoryStateTime::PRE_PDN            0                       # Time in different power states
system.mem_ctrl.rank0.memoryStateTime::ACT   5134268500                       # Time in different power states
system.mem_ctrl.rank0.memoryStateTime::ACT_PDN            0                       # Time in different power states
system.mem_ctrl.power_state.pwrStateResidencyTicks::UNDEFINED   8243878000                       # Cumulative time (in ticks) in various power states
system.clk_domain.clock                          1000                       # Clock period in ticks
system.clk_domain.voltage_domain.voltage            1                       # Voltage in Volts
system.cpu.dtb.walker.power_state.pwrStateResidencyTicks::UNDEFINED   8243878000                       # Cumulative time (in ticks) in various power states
system.cpu.interrupts.clk_domain.clock          16000                       # Clock period in ticks
system.cpu.itb.walker.power_state.pwrStateResidencyTicks::UNDEFINED   8243878000                       # Cumulative time (in ticks) in various power states
system.cpu.power_state.numTransitions               1                       # Number of power state transitions
system.cpu.power_state.pwrStateResidencyTicks::ON   8243878000                       # Cumulative time (in ticks) in various power states

---------- End Simulation Statistics   ----------
